test/data/matpower/case67acdc_scopf_SPMACDC.m
% Case based on open source meshed AC/HVDC-Overlay test system
% Sass,F., Sennewald,T. and Westermann, D., TU Ilmenau
function mpc = case67acdc_scopf
mpc.version = '2';
mpc.baseMVA = 100.0;

%% area data
%	area	refbus
mpc.areas = [
	1	 2  3  4;
];

%% bus data
%	bus_i	type	Pd			Qd			Gs		Bs	area		Vm			Va		baseKV	zone		Vmax				Vmin
mpc.bus = [
	1	 		3	 		0.0	 		0.0	 		0.0	 0.0	 1	    1.0	    0	 		380.0	  1	      1.10000	    0.90000;
	2	 		2	 		0.0	    0.0	    0.0	 0.0	 1	    1.0	    0	 		380.0	  1	      1.10000	    0.90000;
	3	 		1	 		0.0	 		0.0	 		0.0	 0.0	 1	    1.0	    0	 		380.0	  1	      1.10000	    0.90000;
	4	 		2	 		0.0	 		0.0	 		0.0	 0.0	 1	    1.0	    0	 		380.0	  1	      1.10000	    0.90000;
	5	 		2	 	  0.0	    0.0	    0.0	 0.0	 1	    1.0	    0	 		380.0	  1	      1.10000	    0.90000;
	6	 		1	 		191.0	 	76.0	 	0.0	 0.0	 1	    1.0	    0	 		380.0	  1	      1.10000	    0.90000;
  7	 		1	 		0.0	 		0.0	 		0.0	 0.0	 1	    1.0	    0	 		380.0	  1	      1.10000	    0.90000;
	8	 		1	 		287.0	 	73.0	 	0.0	 0.0	 1	    1.0	    0	 		380.0	  1	      1.10000	    0.90000;
	9	 		1	 		186.0	 	74.0	 	0.0	 0.0	 1	    1.0	    0	 		380.0	  1	      1.10000	    0.90000;
	10 		2	 		0.0	 	  0.0	 	  0.0	 0.0	 1	    1.0	    0	 		380.0	  1	      1.10000	    0.90000;
	11 		1	 		271.0	 	55.0	  0.0	 0.0	 1	    1.0	    0	 		380.0	  1	      1.10000	    0.90000;
	12 		1	 		171.0	 	87.0	  0.0	 0.0	 1	    1.0	    0	 		380.0	  1	      1.10000	    0.90000;
	13 		2	 		0.0	 	  0.0	 	  0.0	 0.0	 1	    1.0	    0	 		380.0	  1	      1.10000	    0.90000;
	14 		1	 		199.0	 	60.0	  0.0	 0.0	 1	    1.0	    0	 		380.0	  1	      1.10000	    0.90000;
	15 		1	 		113.0	 	52.5	  0.0	 0.0	 1	    1.0	    0	 		380.0	  1	      1.10000	    0.90000;
	16 		1	 		38  	 	7.0 	  0.0	 0.0	 1	    1.0	    0	 		380.0	  1	      1.10000	    0.90000;
	17 		1	 		275.0	 	106.0	  0.0	 0.0	 1	    1.0	    0	 		380.0	  1	      1.10000	    0.90000;
	18 		2	 		0.0	 	  0.0	 	  0.0	 0.0	 1	    1.0	    0	 		380.0	  1	      1.10000	    0.90000;
	19 		1	 		165.0	 	46.0	  0.0	 0.0	 1	    1.0	    0	 		380.0	  1	      1.10000	    0.90000;
	20 		1	 		178.0	 	82.5	  0.0	 0.0	 1	    1.0	    0	 		380.0	  1	      1.10000	    0.90000;
	21 		1	 		0.0	 	  0.0	    0.0	 0.0	 1	    1.0	    0	 		380.0	  1	      1.10000	    0.90000;
	22 		1	 		30.0	 	7.0	    0.0	 0.0	 1	    1.0	    0	 		380.0	  1	      1.10000	    0.90000;
	23 		1	 		0.0	 	  0.0	 	  0.0	 0.0	 1	    1.0	    0	 		380.0	  1	      1.10000	    0.90000;
	24 		1	 		32.0	 	7.0	    0.0	 0.0	 1	    1.0	    0	 		380.0	  1	      1.10000	    0.90000;
	25 		2	 		0.0	 	  0.0	 	  0.0	 0.0	 1	    1.0	    0	 		380.0	  1	      1.10000	    0.90000;
	26 		1	 		395.0	 	89.0	  0.0	 0.0	 2	    1.0	    0	 		380.0	  1	      1.10000	    0.90000;
	27 		1	 		0.0	 	  0.0	 	  0.0	 0.0	 2	    1.0	    0	 		380.0	  1	      1.10000	    0.90000;
	28 		1	 		665.0	 	99.0	  0.0	 0.0	 2	    1.0	    0	 		380.0	  1	      1.10000	    0.90000;
	29 		2	 		0.0	 	  0.0	 	  0.0	 0.0	 2	    1.0	    0	 		380.0	  1	      1.10000	    0.90000;
	30 		1	 		266.0	 	100.0	  0.0	 0.0	 2	    1.0	    0	 		380.0	  1	      1.10000	    0.90000;
	31 		1	 		845.0	 	119.0	  0.0	 0.0	 2	    1.0	    0	 		380.0	  1	      1.10000	    0.90000;
	32 		1	 		332.0	 	137.0	  0.0	 0.0	 2	    1.0	    0	 		380.0	  1	      1.10000	    0.90000;
	33 		2	 		0.0	 	  0.0	 	  0.0	 0.0	 2	    1.0	    0	 		380.0	  1	      1.10000	    0.90000;
	34 		1	 		540.0	 	158.0	  0.0	 0.0	 2	    1.0	    0	 		380.0	  1	      1.10000	    0.90000;
	35 		1	 		460.0	 	97.0	  0.0	 0.0	 2	    1.0	    0	 		380.0	  1	      1.10000	    0.90000;
  36 		2	 		0.0	 	  0.0	 	  0.0	 0.0	 2	    1.0	    0	 		380.0	  1	      1.10000	    0.90000;
	37 		1	 		451.0	 	190.0	  0.0	 0.0	 2	    1.0	    0	 		380.0	  1	      1.10000	    0.90000;
	38 		1	 		150.0	 	0.0	    0.0	 0.0	 2	    1.0	    0	 		380.0	  1	      1.10000	    0.90000;
	39 		1	 		629.0	 	87.0	  0.0	 0.0	 2	    1.0	    0	 		380.0	  1	      1.10000	    0.90000;
	40 		1	 		0.0	 	  0.0	 	  0.0	 0.0	 2	    1.0	    0	 		380.0	  1	      1.10000	    0.90000;
	41 		2	 		0.0	 	  0.0	 	  0.0	 0.0	 2	    1.0	    0	 		380.0	  1	      1.10000	    0.90000;
	42 		1	 		859.0	 	180.0	  0.0	 0.0	 2	    1.0	    0	 		380.0	  1	      1.10000	    0.90000;
	43 		2	 		0.0	 	  0.0	 	  0.0	 0.0	 2	    1.0	    0	 		380.0	  1	      1.10000	    0.90000;
	44 		1	 		474.0	 	92.0	  0.0	 0.0	 2	    1.0	    0	 		380.0	  1	      1.10000	    0.90000;
	45 		1	 		668.0	 	109.0	  0.0	 0.0	 2	    1.0	    0	 		380.0	  1	      1.10000	    0.90000;
	46 		1	 		614.0	 	95.0	  0.0	 0.0	 2	    1.0	    0	 		380.0	  1	      1.10000	    0.90000;
	47 		1	 		81.0	 	0.0	    0.0	 0.0	 2	    1.0	    0	 		380.0	  1	      1.10000	    0.90000;
	48 		1	 		0.0	 	  0.0	 	  0.0	 0.0	 2	    1.0	    0	 		380.0	  1	      1.10000	    0.90000;
	49 		1	 		0.0	 	  0.0	 	  0.0	 0.0	 2	    1.0	    0	 		380.0	  1	      1.10000	    0.90000;
	50 		2	 		0.0	 	  0.0	 	  0.0	 0.0	 2	    1.0	    0	 		380.0	  1	      1.10000	    0.90000;
	51 		1	 		430.0	  123.0	  0.0	 0.0	 3	    1.0	    0	 		380.0	  1	      1.10000	    0.90000;
	52 		1	 		309.0	  102.0	  0.0	 0.0	 3	    1.0	    0	 		380.0	  1	      1.10000	    0.90000;
	53 		1	 		100.0	  30.0	  0.0	 0.0	 3	    1.0	    0	 		380.0	  1	      1.10000	    0.90000;
	54 		1	 		0.0	    0.0	    0.0	 0.0	 3	    1.0	    0	 		380.0	  1	      1.10000	    0.90000;
	55 		1	 		303.0	  110.0	  0.0	 0.0	 3	    1.0	    0	 		380.0	  1	      1.10000	    0.90000;
	56 		2	 		0.0	    0.0	    0.0	 0.0	 3	    1.0	    0	 		380.0	  1	      1.10000	    0.90000;
	57 		1	 		0.0	    0.0	    0.0	 0.0	 3	    1.0	    0	 		380.0	  1	      1.10000	    0.90000;
	58 		1	 		324.0	  157.0	  0.0	 0.0	 3	    1.0	    0	 		380.0	  1	      1.10000	    0.90000;
	59 		2	 		0.0	    0.0	    0.0	 0.0	 3	    1.0	    0	 		380.0	  1	      1.10000	    0.90000;
	60 		1	 		115.0	  42.0	  0.0	 0.0	 3	    1.0	    0	 		380.0	  1	      1.10000	    0.90000;
	61 		1	 		187.0	  75.0	  0.0	 0.0	 3	    1.0	    0	 		380.0	  1	      1.10000	    0.90000;
	62 		1	 		319.0	  95.0	  0.0	 0.0	 3	    1.0	    0	 		380.0	  1	      1.10000	    0.90000;
	63 		2 		0.0	    0.0	    0.0	 0.0	 3	    1.0	    0	 		380.0	  1	      1.10000	    0.90000;
	64 		2 		0.0	    0.0	    0.0	 0.0	 3	    1.0	    0	 		380.0	  1	      1.10000	    0.90000;
	65 		1 		315.0	  97.0	  0.0	 0.0	 3	    1.0	    0	 		380.0	  1	      1.10000	    0.90000;
	66 		2 		0.0	    0.0	    0.0	 0.0	 3	    1.0	    0	 		380.0	  1	      1.10000	    0.90000;
	67 		2 		0.0	    0.0	    0.0	 0.0	 4	    1.0	    0	 		380.0	  1	      1.10000	    0.90000;
];

%% generator data
%	bus	Pg			Qg				Qmax		  Qmin		 Vg			   mBase	status	Pmax	  Pmin	 Pc1	 Pc2	 Qc1min	Qc1max	Qc2min	Qc2max	ramp_agc	ramp_10	ramp_30	ramp_q	apf
mpc.gen = [
	1	  700.0	 	23.0	 		1000.0	  -500.0	 1.0526    100.0	 1	 		1000.0	400.0	 0.0	 0.0	 0.0	  0.0	    0.0	     0.0	  0.0	 			0.0	 		0.0	 		0.0	 		0.0;
	2	  1500.0	100.0	 		100.0	     100.0	 1.0526    100.0	 1	 		1500.0	1500.0 0.0	 0.0	 0.0	  0.0	    0.0	     0.0	  0.0	 			0.0	 		0.0	 		0.0	 		0.0;
	4	  523.0	 	140.0	 		350.0	    -350.0	 1.0526  	 100.0	 1	 		560.0	  220.0	 0.0	 0.0	 0.0	  0.0	    0.0	     0.0	  0.0	 			0.0	 		0.0	 		0.0	 		0.0;
	5	  1200.0	100.0	 		100.0	     100.0	 1.0526    100.0	 1	 		1200.0	1200.0 0.0	 0.0	 0.0	  0.0	    0.0	     0.0	  0.0	 			0.0	 		0.0	 		0.0	 		0.0;
	10	436.0	  105.0	 		350.0	    -350.0	 1.0526		 100.0	 1			560.0	  220.0	 0.0	 0.0	 0.0	  0.0	    0.0	     0.0	  0.0	 			0.0			0.0	 		0.0	 		0.0;
	13	541.0	 	117.0	 	  300.0	    -300.0	 1.0526  	 100.0	 1			630.0	  250.0	 0.0	 0.0	 0.0	  0.0	    0.0	     0.0	  0.0	 			0.0	 		0.0	 		0.0			0.0;
	18	681.0	  -35.0	    400.0	    -400.0 	 1.0263    100.0	 1	 		720.0	  300.0	 0.0	 0.0	 0.0	  0.0	    0.0	     0.0	  0.0	 			0.0	 		0.0	 		0.0	 		0.0;
	25	469.0	  59.0	    250.0	    -250.0   1.0395    100.0	 1	 		560.0	  220.0	 0.0	 0.0	 0.0	  0.0	    0.0	     0.0	  0.0	 			0.0	 		0.0	 		0.0	 		0.0;
	29	500.0	  101.0	    350.0	    -350.0	 1.0263    100.0	 1	 		630.0	  250.0	 0.0	 0.0	 0.0	  0.0	    0.0	     0.0	  0.0	 			0.0	 		0.0	 		0.0	 		0.0;
	33	496.0	  306.0	    500.0	    -500.0	 1.0263    100.0	 1	 		850.0	  350.0	 0.0	 0.0	 0.0	  0.0	    0.0	     0.0	  0.0	 			0.0	 		0.0	 		0.0	 		0.0;
	36	512.0	  249.0	    400.0	    -400.0	 1.0263	   100.0	 1	 		720.0	  300.0	 0.0	 0.0	 0.0	  0.0	    0.0	     0.0	  0.0	 			0.0	 		0.0	 		0.0	 		0.0;
	41	350.0	  238.0	    450.0	    -450.0	 1.0395    100.0	 1	 		850.0	  350.0	 0.0	 0.0	 0.0	  0.0	    0.0	     0.0	  0.0	 			0.0	 		0.0	 		0.0	 		0.0;
	43	574.0	  223.0	    500.0	    -250.0	 1.0263    100.0	 1	 		720.0	  220.0	 0.0	 0.0	 0.0	  0.0	    0.0	     0.0	  0.0	 			0.0	 		0.0	 		0.0	 		0.0;
	50	581.0	  150.0	    400.0	    -400.0	 1.0395    100.0	 1	 		720.0	  300.0	 0.0	 0.0	 0.0	  0.0	    0.0	     0.0	  0.0	 			0.0	 		0.0	 		0.0	 		0.0;
	56	496.0	  56.0	    250.0	    -250.0	 1.0395    100.0	 1	 		560.0	  220.0	 0.0	 0.0	 0.0	  0.0	    0.0	     0.0	  0.0	 			0.0	 		0.0	 		0.0	 		0.0;
	59	431.0	  206.0	    350.0	    -350.0	 1.0447    100.0	 1	 		720.0	  300.0	 0.0	 0.0	 0.0	  0.0	    0.0	     0.0	  0.0	 			0.0	 		0.0	 		0.0	 		0.0;
	63	488.0	  152.0	    250.0	    -300.0	 1.0447    100.0	 1	 		520.0	  250.0	 0.0	 0.0	 0.0	  0.0	    0.0	     0.0	  0.0	 			0.0	 		0.0	 		0.0	 		0.0;
	64	300.0	  61.0	    250.0	    -400.0   1.0474    100.0	 1	 		560.0	  250.0	 0.0	 0.0	 0.0	  0.0	    0.0	     0.0	  0.0	 			0.0	 		0.0	 		0.0	 		0.0;
	66	537.0	  143.0	    300.0	    -400.0	 1.0447	   100.0	 1	 		630.0	  250.0	 0.0	 0.0	 0.0	  0.0	    0.0	     0.0	  0.0	 			0.0	 		0.0	 		0.0	 		0.0;
	67	800.0	  0.0	 		  0.0	       0.0	   1.0526    100.0	 1	 		800.0	  800.0  0.0	 0.0	 0.0	  0.0	    0.0	     0.0	  0.0	 			0.0	 		0.0	 		0.0	 		0.0;
];

%column_names%  prated    qrated     pref      qref
mpc.gen_rated = [
								1000.0    1000.0     700.0     23.0;
								1500.0    100.0      1500.0    100.0;
								560.0     350.0      523.0 	   140.0;
								1200.0    100.0      1200.0    100.0;
								560.0     350.0      436.0     105.0;
								630.0     300.0      541.0     117.0;
								720.0     400.0      681.0     -35.0;
								560.0     250.0       469.0     59.0;
								630.0     350.0      500.0     101.0;
								850.0     500.0      496.0     306.0;
								720.0     400.0      512.0     249.0;
								850.0     450.0      350.0     238.0;
								720.0     500.0      574.0     223.0;
								720.0     400.0      581.0     150.0;
								560.0     250.0       496.0     56.0;
								720.0     350.0      431.0     206.0;
								520.0     250.0      488.0     152.0;
								560.0     250.0       300.0     61.0;
								630.0     300.0      537.0     143.0;
								800.0     0.0        800.0     0.0;
];

%% load data
%column_names%	load_bus	pref	  qref     status	  qmax	     qmin     pmax		   pmin 		prated    qrated  voll    load_idx
mpc.sc_load = [
								1	 				0.0     0.0       1	 		  0.0        0	 	    0.0        0.0      0.0       0.0     5000.0  1;
								2	 				0.0     0.0       1	 		  0.0        0.0	 	  0.0        0.0      0.0       0.0     5000.0  2;
								3	 				0.0     0.0       1	 		  0.0        0	 	    0.0        0.0      0.0       0.0     5000.0  3;
								4	 				0.0     0.0       1	 		  0.0        0	 	    0.0        0.0      0.0       0.0     5000.0  4;
								5	 				0.0     0.0       1	 		  0.0        0.0      0.0        0.0      0.0       0.0     5000.0  5;
								6	 				191.0   76.0      1	 		  76.0       0	 	    191.0      0.0      191.0     76.0    5000.0  6;
								7	 				0.0     0.0       1	 		  0.0        0	 	    0.0        0.0      0.0       0.0     5000.0  7;
								8	 				287.0   73.0      1	 		  73.0	     0	 	    287.0	     0.0      287.0     73.0    5000.0  8;
								9	 				186.0   74.0      1	 		  74.0       0	 	    186.0	     0.0      186.0     74.0    5000.0  9;
								10 				0.0     0.0       1	 		  0.0        0	 	    0.0        0.0      0.0       0.0     5000.0  10;
								11 				271.0   55.0      1	 	  	55.0       0	 	    271.0	     0.0      271.0     55.0    5000.0  11;
								12 				171.0	  87.0      1	 		  87.0       0	 	    171.0	     0.0      171.0     87.0    5000.0  12;
								13 				0.0     0.0       1	 		  0.0        0	 	    0.0        0.0      0.0       0.0     5000.0  13;
								14 				199.0	  60.0      1	 		  60.0       0	 	    199.0	 	   0.0      199.0     60.0    5000.0  14;
								15 				113.0	  52.5      1	 		  52.5       0	 	    113.0	 	   0.0      113.0     52.5    5000.0  15;
								16 				38.0	  7.0       1	 		  7.0        0	 	    38.0	   	 0.0      38.0      7.0     5000.0  16;
								17 				275.0	  106.0     1	 		  106.0      0	 	    275.0	 	   0.0      275.0     106.0   5000.0  17;
								18 				0.0     0.0       1	 		  0.0        0	 	    0.0        0.0      0.0       0.0     5000.0  18;
								19 				165.0	  46.0      1	 		  46.0       0	 	    165.0	 	   0.0      165.0     46.0    5000.0  19;
								20 				178.0	  82.5      1	 		  82.5       0	   	  178.0	 	   0.0      178.0     82.5    5000.0  20;
								21 				0.0     0.0       1	 		  0.0        0	 	    0.0        0.0      0.0       0.0     5000.0  21;
								22 				30.0	  7.0       1	 		  7.0        0	 	    30.0	   	 0.0      30.0      7.0     5000.0  22;
								23 				0.0     0.0       1	 		  0.0        0	 	    0.0        0.0      0.0       0.0     5000.0  23;
								24 				32.0	  7.0       1	 		  7.0        0	 	    32.0	 	   0.0      32.0      7.0     5000.0  24;
								25 				0.0     0.0       1	 		  0.0        0	 	    0.0        0.0      0.0       0.0     5000.0  25;
								26 				395.0	  89.0      1	 		  89.0       0	 	    395.0	 	   0.0      395.0     89.0    5000.0  26;
								27 				0.0     0.0       1	 		  0.0        0	 	    0.0        0.0      0.0       0.0     5000.0  27;
								28 				665.0	  99.0      1	 		  99.0       0	 	    665.0	 	   0.0      665.0     99.0    5000.0  28;
								29 				0.0     0.0       1	 		  0.0        0	 	    0.0        0.0      0.0       0.0     5000.0  29;
								30 				266.0	  100.0     1	 		  100.0      0	 	    266.0	   	 0.0      266.0     100.0   5000.0  30;
								31 				845.0	  119.0     1	 		  119.0      0	 	    845.0	 	   0.0      845.0     119.0   5000.0  31;
								32 				332.0	  137.0     1	 		  137.0      0	 	    332.0	 	   0.0      332.0     137.0   5000.0  32;
								33 				0.0     0.0       1	 		  0.0        0	 	    0.0        0.0      0.0       0.0     5000.0  33;
								34 				540.0	  158.0     1	 		  158.0      0	 	    540.0	 	   0.0      540.0     158.0   5000.0  34;
								35 				460.0	  97.0      1	 		  97.0       0	 	    460.0	 	   0.0      460.0     97.0    5000.0  35;
								36 				0.0     0.0       1	 		  0.0        0	 	    0.0        0.0      0.0       0.0     5000.0  36;
								37 				451.0	  190.0     1	 		  190.0      0	 	    451.0	 	   0.0      451.0     190.0   5000.0  37;
								38 				150.0	  0.0       1	 		  0.0        0	 	    150.0	     0.0      150.0     0.0     5000.0  38;
								39 				629.0	  87.0      1	 		  87.0       0	 	    629.0	 	   0.0      629.0     87.0    5000.0  39;
								40 				0.0     0.0       1	 		  0.0        0	 	    0.0        0.0      0.0       0.0     5000.0  40;
								41 				0.0     0.0       1	 		  0.0        0	 	    0.0        0.0      0.0       0.0     5000.0  41;
								42 				859.0	  180.0     1	 		  180.0      0	 	    859.0	 	   0.0      859.0     180.0   5000.0  42;
								43 				0.0     0.0       1	 		  0.0        0	 	    0.0        0.0      0.0       0.0     5000.0  43;
								44 				474.0	  92.0      1	 		  92.0       0	 	    474.0	 	   0.0      474.0     92.0    5000.0  44;
								45 				668.0	  109.0     1	 		  109.0      0	 	    668.0	 	   0.0      668.0     109.0   5000.0  45;
								46 				614.0	  95.0      1	 		  95.0       0	 	    614.0	 	   0.0      614.0     95.0    5000.0  46;
								47 				81.0	  0.0       1	 		  0.0        0.0	    81.0	 	   0.0      81.0      0.0     5000.0  47;
								48 				0.0     0.0       1	 		  0.0        0	 	    0.0        0.0      0.0       0.0     5000.0  48;
								49 				0.0     0.0       1	 		  0.0        0	 	    0.0        0.0      0.0       0.0     5000.0  49;
								50 				0.0     0.0       1	 		  0.0        0	 	    0.0        0.0      0.0       0.0     5000.0  50;
								51 				430.0	  123.0     1	 		  123.0      0	 	    430.0	 	   0.0      430.0     123.0   5000.0  51;
								52 				309.0	  102.0     1	 		  102.0      0	 	    309.0	 	   0.0      309.0     102.0   5000.0  52;
								53 				100.0	  30.0      1	 		  30.0       0	 	    100.0	  	 0.0      100.0     30.0    5000.0  53;
								54 				0.0     0.0       1	 		  0.0        0	 	    0.0        0.0      0.0       0.0     5000.0  54;
								55 				303.0	  110.0     1	 		  110.0      0	 	    303.0	 	   0.0      303.0     110.0   5000.0  55;
								56 				0.0     0.0       1	 		  0.0        0	 	    0.0        0.0      0.0       0.0     5000.0  56;
								57 				0.0     0.0       1	 		  0.0        0	 	    0.0        0.0      0.0       0.0     5000.0  57;
								58 				324.0	  157.0     1	 		  157.0      0	 	    324.0	 	   0.0      324.0     157.0   5000.0  58;
								59 				0.0     0.0       1	 		  0.0        0	 	    0.0        0.0      0.0       0.0     5000.0  59;
                60 				115.0	  42.0      1	 		  42.0       0	 	    115.0	 	   0.0      115.0     42.0    5000.0  60;
								61 				187.0	  75.0      1	 		  75.0       0	 	    187.0	 	   0.0      187.0     75.0    5000.0  61;
								62 				319.0	  95.0      1	 		  95.0       0	 	    319.0	 	   0.0      319.0     95.0    5000.0  62;
								63 				0.0     0.0       1	 		  0.0        0	 	    0.0        0.0      0.0       0.0     5000.0  63;
								64 				0.0     0.0       1	 		  0.0        0	 	    0.0        0.0      0.0       0.0     5000.0  64;
								65 				315.0	  97.0      1	 		  97.0       0	 	    315.0	 	   0.0      315.0     97.0    5000.0  65;
								66 				0.0     0.0       1	 		  0.0        0	 	    0.0        0.0      0.0       0.0     5000.0  66;
								67 				0.0     0.0       1	 		  0.0        0	 	    0.0        0.0      0.0       0.0     5000.0  67;
];


%% generator cost data
%	2	startup	shutdown	n	c(n-1)	...	c0
mpc.gencost = [
	2	 0.0	 0.0	 3	   0.000000	  10.000000	   0.000000;
	2	 0.0	 0.0	 3	   0.000000	  10.000000	   0.000000;
	2	 0.0	 0.0	 3	   0.000000	  10.000000	   0.000000;
	2	 0.0	 0.0	 3	   0.000000	  10.000000	   0.000000;
	2	 0.0	 0.0	 3	   0.000000	  10.000000	   0.000000;
	2	 0.0	 0.0	 3	   0.000000	  10.000000	   0.000000;
	2	 0.0	 0.0	 3	   0.000000	  10.000000	   0.000000;
	2	 0.0	 0.0	 3	   0.000000	  10.000000	   0.000000;
	2	 0.0	 0.0	 3	   0.000000	  10.000000	   0.000000;
	2	 0.0	 0.0	 3	   0.000000	  10.000000	   0.000000;
	2	 0.0	 0.0	 3	   0.000000	  10.000000	   0.000000;
	2	 0.0	 0.0	 3	   0.000000	  10.000000	   0.000000;
	2	 0.0	 0.0	 3	   0.000000	  10.000000	   0.000000;
	2	 0.0	 0.0	 3	   0.000000	  10.000000	   0.000000;
	2	 0.0	 0.0	 3	   0.000000	  10.000000	   0.000000;
	2	 0.0	 0.0	 3	   0.000000	  10.000000	   0.000000;
	2	 0.0	 0.0	 3	   0.000000	  10.000000	   0.000000;
	2	 0.0	 0.0	 3	   0.000000	  10.000000	   0.000000;
	2	 0.0	 0.0	 3	   0.000000	  10.000000	   0.000000;
	2	 0.0	 0.0	 3	   0.000000	  10.000000	   0.000000;
];

%column_names% Generator_id CostPrev CostCorr
mpc.gen_cost = [
1 10.000000 100.000000;
2 10.000000 100.000000;
3 10.000000 100.000000;
4 10.000000 100.000000;
5 10.000000 100.000000;
6 10.000000 100.000000;
7 10.000000 100.000000;
8 10.000000 100.000000;
9 10.000000 100.000000;
10 10.000000 100.000000;
11 10.000000 100.000000;
12 10.000000 100.000000;
13 10.000000 100.000000;
14 10.000000 100.000000;
15 10.000000 100.000000;
16 10.000000 100.000000;
17 10.000000 100.000000;
18 10.000000 100.000000;
19 10.000000 100.000000;
20 10.000000 100.000000;
]

%% branch data
%	fbus	tbus	r				     x			     b				      rateA	   rateB	   rateC		 ratio	angle	  status	angmin	angmax
mpc.branch = [
	1	 		5	 		0.00207756   0.01800554	 0.61242207 	  900.0	   900.0 	   900.0 	   0.0	  0.0	    1	 		  -30.0	 	30.0;
	1	 		7	 		0.00207756   0.01800554	 0.61242207 	  900.0	   900.0 	   900.0  	 0.0	  0.0	    1	 		  -30.0	 	30.0;
	1	 		8	 		0.00207756   0.01800554	 0.61242207 	  900.0	   900.0 	   900.0  	 0.0	  0.0	    1	 		  -30.0	 	30.0;
	1	 		14 		0.00207756   0.01800554	 0.61242207 	  900.0	   900.0 	   900.0  	 0.0	  0.0	    1	 		  -30.0	 	30.0;
	2	 		3 		0.00207756   0.01800554	 0.61242207 	  900.0	   900.0 	   900.0  	 0.0	  0.0	    1	 		  -30.0	 	30.0;
	2	 		9 		0.00207756   0.01800554	 0.61242207 	  900.0	   900.0 	   900.0  	 0.0	  0.0	    1	 		  -30.0	 	30.0;
	2	 		12 		0.00207756   0.01800554	 0.61242207 	  900.0	   900.0 	   900.0  	 0.0	  0.0	    1	 		  -30.0	 	30.0;
	3	 		4 		0.00207756   0.01800554	 0.61242207 	  900.0	   900.0 	   900.0  	 0.0	  0.0	    1	 		  -30.0	 	30.0;
	3	 		10 		0.00207756   0.01800554	 0.61242207 	  900.0	   900.0 	   900.0  	 0.0	  0.0	    1	 		  -30.0	 	30.0;
	3	 		12 		0.00207756   0.01800554	 0.61242207 	  900.0	   900.0 	   900.0  	 0.0	  0.0	    1	 		  -30.0	 	30.0;
	3	 		9 		0.00207756   0.01800554	 0.61242207 	  900.0	   900.0 	   900.0  	 0.0	  0.0	    1	 		  -30.0	 	30.0;
	4	 		14 		0.00207756   0.01800554	 0.61242207 	  900.0	   900.0 	   900.0  	 0.0	  0.0	    1	 		  -30.0	 	30.0;
	4	 		19 		0.00207756   0.01800554	 0.61242207 	  900.0	   900.0 	   900.0  	 0.0	  0.0	    1	 		  -30.0	 	30.0;
	5	 		6 		0.00207756   0.01800554	 0.61242207 	  900.0	   900.0 	   900.0  	 0.0	  0.0	    1	 		  -30.0	 	30.0;
	5	 		7 		0.00207756   0.01800554	 0.61242207 	  900.0	   900.0 	   900.0  	 0.0	  0.0	    1	 		  -30.0	 	30.0;
	5	 		8 		0.00207756   0.01800554	 0.61242207 	  900.0	   900.0 	   900.0  	 0.0	  0.0	    1	 		  -30.0	 	30.0;
	6	 		7 		0.00207756   0.01800554	 0.61242207 	  900.0	   900.0 	   900.0  	 0.0	  0.0	    1	 		  -30.0	 	30.0;
	7	 		15 		0.00207756   0.01800554	 0.61242207 	  900.0	   900.0 	   900.0  	 0.0	  0.0	    1	 		  -30.0	 	30.0;
	7	 		16 		0.00207756   0.01800554	 0.61242207 	  900.0	   900.0 	   900.0  	 0.0	  0.0	    1	 		  -30.0	 	30.0;
	8	 		9 		0.00207756   0.01800554	 0.61242207 	  900.0	   900.0 	   900.0  	 0.0	  0.0	    1	 		  -30.0	 	30.0;
	10 		11 		0.00207756   0.01800554	 0.61242207 	  900.0	   900.0 	   900.0  	 0.0	  0.0	    1	 		  -30.0	 	30.0;
	10 		22 		0.00207756   0.01800554	 0.61242207 	  900.0	   900.0 	   900.0  	 0.0	  0.0	    1	 		  -30.0	 	30.0;
	11 		12 		0.00207756   0.01800554	 0.61242207 	  900.0	   900.0 	   900.0  	 0.0	  0.0	    1	 		  -30.0	 	30.0;
	11 		13 		0.00207756   0.01800554	 0.61242207 	  900.0	   900.0 	   900.0  	 0.0	  0.0	    1	 		  -30.0	 	30.0;
	12 		13 		0.00207756   0.01800554	 0.61242207 	  900.0	   900.0 	   900.0  	 0.0	  0.0	    1	 		  -30.0	 	30.0;
	13 		53 		0.00207756   0.01800554	 0.61242207 	  900.0	   900.0 	   900.0  	 0.0	  0.0	    1	 		  -30.0	 	30.0;
	14 		15 		0.00207756   0.01800554	 0.61242207 	  900.0	   900.0 	   900.0  	 0.0	  0.0	    1	 		  -30.0	 	30.0;
	14 		18 		0.00207756   0.01800554	 0.61242207 	  900.0	   900.0 	   900.0  	 0.0	  0.0	    1	 		  -30.0	 	30.0;
  16 		17 		0.00207756   0.01800554	 0.61242207 	  900.0	   900.0 	   900.0  	 0.0	  0.0	    1	 		  -30.0	 	30.0;
	16 		18 		0.00207756   0.01800554	 0.61242207 	  900.0	   900.0 	   900.0  	 0.0	  0.0	    1	 		  -30.0	 	30.0;
	17 		24 		0.00207756   0.01800554	 0.61242207 	  900.0	   900.0 	   900.0  	 0.0	  0.0	    1	 		  -30.0	 	30.0;
	18 		24 		0.00207756   0.01800554	 0.61242207 	  900.0	   900.0 	   900.0  	 0.0	  0.0	    1	 		  -30.0	 	30.0;
	19 		20 		0.00207756   0.01800554	 0.61242207 	  900.0	   900.0 	   900.0  	 0.0	  0.0	    1	 		  -30.0	 	30.0;
	19 		23 		0.00207756   0.01800554	 0.61242207 	  900.0	   900.0 	   900.0  	 0.0	  0.0	    1	 		  -30.0	 	30.0;
	20 		21 		0.00207756   0.01800554	 0.61242207 	  900.0	   900.0 	   900.0  	 0.0	  0.0	    1	 		  -30.0	 	30.0;
	21 		25 		0.00207756   0.01800554	 0.61242207 	  900.0	   900.0 	   900.0  	 0.0	  0.0	    1	 		  -30.0	 	30.0;
	21 		22 		0.00207756   0.01800554	 0.61242207 	  900.0	   900.0 	   900.0  	 0.0	  0.0	    1	 		  -30.0	 	30.0;
	21 		23 		0.00207756   0.01800554	 0.61242207 	  900.0	   900.0 	   900.0  	 0.0	  0.0	    1	 		  -30.0	 	30.0;
	22 		25 		0.00207756   0.01800554	 0.61242207 	  900.0	   900.0 	   900.0  	 0.0	  0.0	    1	 		  -30.0	 	30.0;
	18 		20 		0.00207756   0.01800554	 0.61242207 	  900.0	   900.0 	   900.0  	 0.0	  0.0	    1	 		  -30.0	 	30.0;
	24 		49 		0.00207756   0.01800554	 0.61242207 	  900.0	   900.0 	   900.0  	 0.0	  0.0	    1	 		  -30.0	 	30.0;
	25 		43 		0.00207756   0.01800554	 0.61242207 	  900.0	   900.0 	   900.0  	 0.0	  0.0	    1	 		  -30.0	 	30.0;
	26 		27 		0.00207756   0.01800554	 0.61242207 	  900.0	   900.0 	   900.0  	 0.0	  0.0	    1	 		  -30.0	 	30.0;
	26 		31 		0.00207756   0.01800554	 0.61242207 	  900.0	   900.0 	   900.0  	 0.0	  0.0	    1	 		  -30.0	 	30.0;
	26 		40 		0.00207756   0.01800554	 0.61242207 	  900.0	   900.0 	   900.0  	 0.0	  0.0	    1	 		  -30.0	 	30.0;
	27 		28 		0.00207756   0.01800554	 0.61242207 	  900.0	   900.0 	   900.0  	 0.0	  0.0	    1	 		  -30.0	 	30.0;
	28 		35 		0.00207756   0.01800554	 0.61242207 	  900.0	   900.0 	   900.0  	 0.0	  0.0	    1	 		  -30.0	 	30.0;
	28 		37 		0.00207756   0.01800554	 0.61242207 	  900.0	   900.0 	   900.0  	 0.0	  0.0	    1	 		  -30.0	 	30.0;
	29 		39 		0.00207756   0.01800554	 0.61242207 	  900.0	   900.0 	   900.0  	 0.0	  0.0	    1	 		  -30.0	 	30.0;
	29 		44 		0.00207756   0.01800554	 0.61242207 	  900.0	   900.0 	   900.0  	 0.0	  0.0	    1	 		  -30.0	 	30.0;
	30 		31 		0.00207756   0.01800554	 0.61242207 	  900.0	   900.0 	   900.0  	 0.0	  0.0	    1	 		  -30.0	 	30.0;
	31 		27 		0.00207756   0.01800554	 0.61242207 	  900.0	   900.0 	   900.0  	 0.0	  0.0	    1	 		  -30.0	 	30.0;
	30 		26 		0.00207756   0.01800554	 0.61242207 	  900.0	   900.0 	   900.0  	 0.0	  0.0	    1	 		  -30.0	 	30.0;
	32 		40 		0.00207756   0.01800554	 0.61242207 	  900.0	   900.0 	   900.0  	 0.0	  0.0	    1	 		  -30.0	 	30.0;
	41 		40 		0.00207756   0.01800554	 0.61242207 	  900.0	   900.0 	   900.0  	 0.0	  0.0	    1	 		  -30.0	 	30.0;
	43 		44 		0.00207756   0.01800554	 0.61242207 	  900.0	   900.0 	   900.0  	 0.0	  0.0	    1	 		  -30.0	 	30.0;
	33 		51 		0.00207756   0.01800554	 0.61242207 	  900.0	   900.0 	   900.0  	 0.0	  0.0	    1	 		  -30.0	 	30.0;
	33 		34 		0.00207756   0.01800554	 0.61242207 	  900.0	   900.0 	   900.0  	 0.0	  0.0	    1	 		  -30.0	 	30.0;
	34 		51 		0.00207756   0.01800554	 0.61242207 	  900.0	   900.0 	   900.0  	 0.0	  0.0	    1	 		  -30.0	 	30.0;
	35 		33 		0.00207756   0.01800554	 0.61242207 	  900.0	   900.0 	   900.0  	 0.0	  0.0	    1	 		  -30.0	 	30.0;
	35 		36 		0.00207756   0.01800554	 0.61242207 	  900.0	   900.0 	   900.0  	 0.0	  0.0	    1	 		  -30.0	 	30.0;
	35 		47 		0.00207756   0.01800554	 0.61242207 	  900.0	   900.0 	   900.0  	 0.0	  0.0	    1	 		  -30.0	 	30.0;
	29 		35 		0.00207756   0.01800554	 0.61242207 	  900.0	   900.0 	   900.0  	 0.0	  0.0	    1	 		  -30.0	 	30.0;
	36 		37 		0.00207756   0.01800554	 0.61242207 	  900.0	   900.0 	   900.0  	 0.0	  0.0	    1	 		  -30.0	 	30.0;
	36 		38 		0.00207756   0.01800554	 0.61242207 	  900.0	   900.0 	   900.0  	 0.0	  0.0	    1	 		  -30.0	 	30.0;
	37 		38 		0.00207756   0.01800554	 0.61242207 	  900.0	   900.0 	   900.0  	 0.0	  0.0	    1	 		  -30.0	 	30.0;
	39 		40 		0.00207756   0.01800554	 0.61242207 	  900.0	   900.0 	   900.0  	 0.0	  0.0	    1	 		  -30.0	 	30.0;
	39 		43 		0.00207756   0.01800554	 0.61242207 	  900.0	   900.0 	   900.0  	 0.0	  0.0	    1	 		  -30.0	 	30.0;
	41 		42 		0.00207756   0.01800554	 0.61242207 	  900.0	   900.0 	   900.0  	 0.0	  0.0	    1	 		  -30.0	 	30.0;
	42 		43 		0.00207756   0.01800554	 0.61242207 	  900.0	   900.0 	   900.0  	 0.0	  0.0	    1	 		  -30.0	 	30.0;
	42 		49 		0.00207756   0.01800554	 0.61242207 	  900.0	   900.0 	   900.0  	 0.0	  0.0	    1	 		  -30.0	 	30.0;
	43 		49 		0.00207756   0.01800554	 0.61242207 	  900.0	   900.0 	   900.0  	 0.0	  0.0	    1	 		  -30.0	 	30.0;
	44 		45 		0.00207756   0.01800554	 0.61242207 	  900.0	   900.0 	   900.0  	 0.0	  0.0	    1	 		  -30.0	 	30.0;
	44 		48 		0.00207756   0.01800554	 0.61242207 	  900.0	   900.0 	   900.0  	 0.0	  0.0	    1	 		  -30.0	 	30.0;
	45 		46 		0.00207756   0.01800554	 0.61242207 	  900.0	   900.0 	   900.0  	 0.0	  0.0	    1	 		  -30.0	 	30.0;
	45 		50 		0.00207756   0.01800554	 0.61242207 	  900.0	   900.0 	   900.0  	 0.0	  0.0	    1	 		  -30.0	 	30.0;
	47 		48 		0.00207756   0.01800554	 0.61242207 	  900.0	   900.0 	   900.0  	 0.0	  0.0	    1	 		  -30.0	 	30.0;
	46 		48 		0.00207756   0.01800554	 0.61242207 	  900.0	   900.0 	   900.0  	 0.0	  0.0	    1	 		  -30.0	 	30.0;
	47 		50 		0.00207756   0.01800554	 0.61242207 	  900.0	   900.0 	   900.0  	 0.0	  0.0	    1	 		  -30.0	 	30.0;
	47 		51 		0.00207756   0.01800554	 0.61242207 	  900.0	   900.0 	   900.0  	 0.0	  0.0	    1	 		  -30.0	 	30.0;
	47 		59 		0.00207756   0.01800554	 0.61242207 	  900.0	   900.0 	   900.0  	 0.0	  0.0	    1	 		  -30.0	 	30.0;
	52 		53 		0.00207756   0.01800554	 0.61242207 	  900.0	   900.0 	   900.0  	 0.0	  0.0	    1	 		  -30.0	 	30.0;
	52 		54 		0.00207756   0.01800554	 0.61242207 	  900.0	   900.0 	   900.0  	 0.0	  0.0	    1	 		  -30.0	 	30.0;
	63 		55 		0.00207756   0.01800554	 0.61242207 	  900.0	   900.0 	   900.0  	 0.0	  0.0	    1	 		  -30.0	 	30.0;
	22 		56 		0.00207756   0.01800554	 0.61242207 	  900.0	   900.0 	   900.0  	 0.0	  0.0	    1	 		  -30.0	 	30.0;
	54 		65 		0.00207756   0.01800554	 0.61242207 	  900.0	   900.0 	   900.0  	 0.0	  0.0	    1	 		  -30.0	 	30.0;
	55 		57 		0.00207756   0.01800554	 0.61242207 	  900.0	   900.0 	   900.0  	 0.0	  0.0	    1	 		  -30.0	 	30.0;
	58 		61 		0.00207756   0.01800554	 0.61242207 	  900.0	   900.0 	   900.0  	 0.0	  0.0	    1	 		  -30.0	 	30.0;
	56 		59 		0.00207756   0.01800554	 0.61242207 	  900.0	   900.0 	   900.0  	 0.0	  0.0	    1	 		  -30.0	 	30.0;
	57 		58 		0.00207756   0.01800554	 0.61242207 	  900.0	   900.0 	   900.0  	 0.0	  0.0	    1	 		  -30.0	 	30.0;
	56 		58 		0.00207756   0.01800554	 0.61242207 	  900.0	   900.0 	   900.0  	 0.0	  0.0	    1	 		  -30.0	 	30.0;
	58 		60 		0.00207756   0.01800554	 0.61242207 	  900.0	   900.0 	   900.0  	 0.0	  0.0	    1	 		  -30.0	 	30.0;
	62 		66 		0.00207756   0.01800554	 0.61242207 	  900.0	   900.0 	   900.0  	 0.0	  0.0	    1	 		  -30.0	 	30.0;
	61 		62 		0.00207756   0.01800554	 0.61242207 	  900.0	   900.0 	   900.0  	 0.0	  0.0	    1	 		  -30.0	 	30.0;
	52 		64 		0.00207756   0.01800554	 0.61242207 	  900.0	   900.0 	   900.0  	 0.0	  0.0	    1	 		  -30.0	 	30.0;
	62 		63 		0.00207756   0.01800554	 0.61242207 	  900.0	   900.0 	   900.0  	 0.0	  0.0	    1	 		  -30.0	 	30.0;
	59 		60 		0.00207756   0.01800554	 0.61242207 	  900.0	   900.0 	   900.0  	 0.0	  0.0	    1	 		  -30.0	 	30.0;
	63 		57 		0.00207756   0.01800554	 0.61242207 	  900.0	   900.0 	   900.0  	 0.0	  0.0	    1	 		  -30.0	 	30.0;
	65 		66 		0.00207756   0.01800554	 0.61242207 	  900.0	   900.0 	   900.0  	 0.0	  0.0	    1	 		  -30.0	 	30.0;
	66 		54 		0.00207756   0.01800554	 0.61242207 	  900.0	   900.0 	   900.0  	 0.0	  0.0	    1	 		  -30.0	 	30.0;
	66 		64 		0.00207756   0.01800554	 0.61242207 	  900.0	   900.0 	   900.0  	 0.0	  0.0	    1	 		  -30.0	 	30.0;
	30 		32 		0.00207756   0.01800554	 0.61242207 	  900.0	   900.0 	   900.0  	 0.0	  0.0	    1	 		  -30.0	 	30.0;
];

%column_names%  g_shunt shiftable  shift_fr  shift_to  shift_fr_max  shift_fr_min  shift_to_max  shift_to_min  tappable  tap_fr  tap_to  tap_fr_max  tap_fr_min  tap_to_max  tap_to_min
mpc.branch_variable_transformer = [
								0   		0   			 0  			 0 				 0   					 0 							0 						0							0 				1 			1 			1 					1 					1 					1;
								0   		0   			 0  			 0 				 0   					 0 							0 						0							0 				1 			1 			1 					1 					1 					1;
								0   		0   			 0  			 0 				 0   					 0 							0 						0							0 				1 			1 			1 					1 					1 					1;
								0   		0   			 0  			 0 				 0   					 0 							0 						0							0 				1 			1 			1 					1 					1 					1;
								0   		0   			 0  			 0 				 0   					 0 							0 						0							0 				1 			1 			1 					1 					1 					1;
								0   		0   			 0  			 0 				 0   					 0 							0 						0							0 				1 			1 			1 					1 					1 					1;
								0   		0   			 0  			 0 				 0   					 0 							0 						0							0 				1 			1 			1 					1 					1 					1;
								0   		0   			 0  			 0 				 0   					 0 							0 						0							0 				1 			1 			1 					1 					1 					1;
								0   		0   			 0  			 0 				 0   					 0 							0 						0							0 				1 			1 			1 					1 					1 					1;
								0   		0   			 0  			 0 				 0   					 0 							0 						0							0 				1 			1 			1 					1 					1 					1;
								0   		0   			 0  			 0 				 0   					 0 							0 						0							0 				1 			1 			1 					1 					1 					1;
								0   		0   			 0  			 0 				 0   					 0 							0 						0							0 				1 			1 			1 					1 					1 					1;
								0   		0   			 0  			 0 				 0   					 0 							0 						0							0 				1 			1 			1 					1 					1 					1;
								0   		0   			 0  			 0 				 0   					 0 							0 						0							0 				1 			1 			1 					1 					1 					1;
								0   		0   			 0  			 0 				 0   					 0 							0 						0							0 				1 			1 			1 					1 					1 					1;
								0   		0   			 0  			 0 				 0   					 0 							0 						0							0 				1 			1 			1 					1 					1 					1;
								0   		0   			 0  			 0 				 0   					 0 							0 						0							0 				1 			1 			1 					1 					1 					1;
								0   		0   			 0  			 0 				 0   					 0 							0 						0							0 				1 			1 			1 					1 					1 					1;
								0   		0   			 0  			 0 				 0   					 0 							0 						0							0 				1 			1 			1 					1 					1 					1;
								0   		0   			 0  			 0 				 0   					 0 							0 						0							0 				1 			1 			1 					1 					1 					1;
								0   		0   			 0  			 0 				 0   					 0 							0 						0							0 				1 			1 			1 					1 					1 					1;
								0   		0   			 0  			 0 				 0   					 0 							0 						0							0 				1 			1 			1 					1 					1 					1;
								0   		0   			 0  			 0 				 0   					 0 							0 						0							0 				1 			1 			1 					1 					1 					1;
								0   		0   			 0  			 0 				 0   					 0 							0 						0							0 				1 			1 			1 					1 					1 					1;
								0   		0   			 0  			 0 				 0   					 0 							0 						0							0 				1 			1 			1 					1 					1 					1;
								0   		0   			 0  			 0 				 0   					 0 							0 						0							0 				1 			1 			1 					1 					1 					1;
								0   		0   			 0  			 0 				 0   					 0 							0 						0							0 				1 			1 			1 					1 					1 					1;
								0   		0   			 0  			 0 				 0   					 0 							0 						0							0 				1 			1 			1 					1 					1 					1;
								0   		0   			 0  			 0 				 0   					 0 							0 						0							0 				1 			1 			1 					1 					1 					1;
								0   		0   			 0  			 0 				 0   					 0 							0 						0							0 				1 			1 			1 					1 					1 					1;
								0   		0   			 0  			 0 				 0   					 0 							0 						0							0 				1 			1 			1 					1 					1 					1;
								0   		0   			 0  			 0 				 0   					 0 							0 						0							0 				1 			1 			1 					1 					1 					1;
								0   		0   			 0  			 0 				 0   					 0 							0 						0							0 				1 			1 			1 					1 					1 					1;
								0   		0   			 0  			 0 				 0   					 0 							0 						0							0 				1 			1 			1 					1 					1 					1;
								0   		0   			 0  			 0 				 0   					 0 							0 						0							0 				1 			1 			1 					1 					1 					1;
								0   		0   			 0  			 0 				 0   					 0 							0 						0							0 				1 			1 			1 					1 					1 					1;
								0   		0   			 0  			 0 				 0   					 0 							0 						0							0 				1 			1 			1 					1 					1 					1;
								0   		0   			 0  			 0 				 0   					 0 							0 						0							0 				1 			1 			1 					1 					1 					1;
								0   		0   			 0  			 0 				 0   					 0 							0 						0							0 				1 			1 			1 					1 					1 					1;
								0   		0   			 0  			 0 				 0   					 0 							0 						0							0 				1 			1 			1 					1 					1 					1;
								0   		0   			 0  			 0 				 0   					 0 							0 						0							0 				1 			1 			1 					1 					1 					1;
								0   		0   			 0  			 0 				 0   					 0 							0 						0							0 				1 			1 			1 					1 					1 					1;
								0   		0   			 0  			 0 				 0   					 0 							0 						0							0 				1 			1 			1 					1 					1 					1;
								0   		0   			 0  			 0 				 0   					 0 							0 						0							0 				1 			1 			1 					1 					1 					1;
								0   		0   			 0  			 0 				 0   					 0 							0 						0							0 				1 			1 			1 					1 					1 					1;
								0   		0   			 0  			 0 				 0   					 0 							0 						0							0 				1 			1 			1 					1 					1 					1;
								0   		0   			 0  			 0 				 0   					 0 							0 						0							0 				1 			1 			1 					1 					1 					1;
								0   		0   			 0  			 0 				 0   					 0 							0 						0							0 				1 			1 			1 					1 					1 					1;
								0   		0   			 0  			 0 				 0   					 0 							0 						0							0 				1 			1 			1 					1 					1 					1;
								0   		0   			 0  			 0 				 0   					 0 							0 						0							0 				1 			1 			1 					1 					1 					1;
								0   		0   			 0  			 0 				 0   					 0 							0 						0							0 				1 			1 			1 					1 					1 					1;
								0   		0   			 0  			 0 				 0   					 0 							0 						0							0 				1 			1 			1 					1 					1 					1;
								0   		0   			 0  			 0 				 0   					 0 							0 						0							0 				1 			1 			1 					1 					1 					1;
								0   		0   			 0  			 0 				 0   					 0 							0 						0							0 				1 			1 			1 					1 					1 					1;
								0   		0   			 0  			 0 				 0   					 0 							0 						0							0 				1 			1 			1 					1 					1 					1;
								0   		0   			 0  			 0 				 0   					 0 							0 						0							0 				1 			1 			1 					1 					1 					1;
								0   		0   			 0  			 0 				 0   					 0 							0 						0							0 				1 			1 			1 					1 					1 					1;
								0   		0   			 0  			 0 				 0   					 0 							0 						0							0 				1 			1 			1 					1 					1 					1;
								0   		0   			 0  			 0 				 0   					 0 							0 						0							0 				1 			1 			1 					1 					1 					1;
								0   		0   			 0  			 0 				 0   					 0 							0 						0							0 				1 			1 			1 					1 					1 					1;
								0   		0   			 0  			 0 				 0   					 0 							0 						0							0 				1 			1 			1 					1 					1 					1;
								0   		0   			 0  			 0 				 0   					 0 							0 						0							0 				1 			1 			1 					1 					1 					1;
								0   		0   			 0  			 0 				 0   					 0 							0 						0							0 				1 			1 			1 					1 					1 					1;
								0   		0   			 0  			 0 				 0   					 0 							0 						0							0 				1 			1 			1 					1 					1 					1;
								0   		0   			 0  			 0 				 0   					 0 							0 						0							0 				1 			1 			1 					1 					1 					1;
								0   		0   			 0  			 0 				 0   					 0 							0 						0							0 				1 			1 			1 					1 					1 					1;
								0   		0   			 0  			 0 				 0   					 0 							0 						0							0 				1 			1 			1 					1 					1 					1;
								0   		0   			 0  			 0 				 0   					 0 							0 						0							0 				1 			1 			1 					1 					1 					1;
								0   		0   			 0  			 0 				 0   					 0 							0 						0							0 				1 			1 			1 					1 					1 					1;
								0   		0   			 0  			 0 				 0   					 0 							0 						0							0 				1 			1 			1 					1 					1 					1;
								0   		0   			 0  			 0 				 0   					 0 							0 						0							0 				1 			1 			1 					1 					1 					1;
								0   		0   			 0  			 0 				 0   					 0 							0 						0							0 				1 			1 			1 					1 					1 					1;
								0   		0   			 0  			 0 				 0   					 0 							0 						0							0 				1 			1 			1 					1 					1 					1;
								0   		0   			 0  			 0 				 0   					 0 							0 						0							0 				1 			1 			1 					1 					1 					1;
								0   		0   			 0  			 0 				 0   					 0 							0 						0							0 				1 			1 			1 					1 					1 					1;
								0   		0   			 0  			 0 				 0   					 0 							0 						0							0 				1 			1 			1 					1 					1 					1;
								0   		0   			 0  			 0 				 0   					 0 							0 						0							0 				1 			1 			1 					1 					1 					1;
								0   		0   			 0  			 0 				 0   					 0 							0 						0							0 				1 			1 			1 					1 					1 					1;
								0   		0   			 0  			 0 				 0   					 0 							0 						0							0 				1 			1 			1 					1 					1 					1;
								0   		0   			 0  			 0 				 0   					 0 							0 						0							0 				1 			1 			1 					1 					1 					1;
								0   		0   			 0  			 0 				 0   					 0 							0 						0							0 				1 			1 			1 					1 					1 					1;
								0   		0   			 0  			 0 				 0   					 0 							0 						0							0 				1 			1 			1 					1 					1 					1;
								0   		0   			 0  			 0 				 0   					 0 							0 						0							0 				1 			1 			1 					1 					1 					1;
								0   		0   			 0  			 0 				 0   					 0 							0 						0							0 				1 			1 			1 					1 					1 					1;
								0   		0   			 0  			 0 				 0   					 0 							0 						0							0 				1 			1 			1 					1 					1 					1;
								0   		0   			 0  			 0 				 0   					 0 							0 						0							0 				1 			1 			1 					1 					1 					1;
								0   		0   			 0  			 0 				 0   					 0 							0 						0							0 				1 			1 			1 					1 					1 					1;
								0   		0   			 0  			 0 				 0   					 0 							0 						0							0 				1 			1 			1 					1 					1 					1;
								0   		0   			 0  			 0 				 0   					 0 							0 						0							0 				1 			1 			1 					1 					1 					1;
								0   		0   			 0  			 0 				 0   					 0 							0 						0							0 				1 			1 			1 					1 					1 					1;
								0   		0   			 0  			 0 				 0   					 0 							0 						0							0 				1 			1 			1 					1 					1 					1;
								0   		0   			 0  			 0 				 0   					 0 							0 						0							0 				1 			1 			1 					1 					1 					1;
								0   		0   			 0  			 0 				 0   					 0 							0 						0							0 				1 			1 			1 					1 					1 					1;
								0   		0   			 0  			 0 				 0   					 0 							0 						0							0 				1 			1 			1 					1 					1 					1;
								0   		0   			 0  			 0 				 0   					 0 							0 						0							0 				1 			1 			1 					1 					1 					1;
								0   		0   			 0  			 0 				 0   					 0 							0 						0							0 				1 			1 			1 					1 					1 					1;
								0   		0   			 0  			 0 				 0   					 0 							0 						0							0 				1 			1 			1 					1 					1 					1;
								0   		0   			 0  			 0 				 0   					 0 							0 						0							0 				1 			1 			1 					1 					1 					1;
								0   		0   			 0  			 0 				 0   					 0 							0 						0							0 				1 			1 			1 					1 					1 					1;
								0   		0   			 0  			 0 				 0   					 0 							0 						0							0 				1 			1 			1 					1 					1 					1;
								0   		0   			 0  			 0 				 0   					 0 							0 						0							0 				1 			1 			1 					1 					1 					1;
								0   		0   			 0  			 0 				 0   					 0 							0 						0							0 				1 			1 			1 					1 					1 					1;
];

%column_names% prob 	 branch_id1 branch_id2 branch_id3 dcbranch_id1 dcbranch_id2 dcbranch_id3 gen_id1 gen_id2 gen_id3 dcconv_id1 dcconv_id2  dcconv_id3
mpc.contingencies = [
							 0.98     0 					0 				 0   				0 						0 					0   					0 			0 			0   		0 				0 					0;
							 0.005    7 					0 				 0   				0 						0 					0   					0 			0 			0   		0 				0 					0;
							 0.005    13 				  0 				 0   				0 						0 					0   					0 			0 			0   		0 				0 					0;
							 0.005    26					0 				 0   				0 						0 					0  	 					0 			0 			0   		0 				0 					0;
  						 0.005    41					0 				 0   				0 						0 					0   					0 			0 			0   		0 				0 					0;
							 0.005    42					0 				 0   				0 						0 					0   					0 			0 			0   		0 				0 					0;
							 0.005    45					0 				 0   				0 						0 					0   					0 			0 			0   		0 				0 					0;
							 0.005    54					0 				 0   				0 						0 					0   					0 			0 			0   		0 				0 					0;
							 0.005    81					0 				 0   				0 						0 					0   					0 			0 			0   		0 				0 					0;
							 0.005    82					0 				 0   				0 						0 					0   					0 			0 			0   		0 				0 					0;
							 0.005    85					0 				 0   				0 						0 					0   					0 			0 			0   		0 				0 					0;
							 0.005    93					0 				 0   				0 						0 					0   					0 			0 			0   		0 				0 					0;
							 0.005    0 					0 				 0   				1 						0 					0   					0 			0 			0   		0 				0 					0;
							 0.005    0					  0 				 0   				2 						0 					0   					0 			0 			0   		0 				0 					0;
 ];

%% dc grid topology
%colunm_names% dcpoles
mpc.dcpol=2;
% numbers of poles (1=monopolar grid, 2=bipolar grid)
%% bus data
%column_names%   busdc_i  grid    Pdc     Vdc     basekVdc  Vdcmax  Vdcmin  Cdc
mpc.busdc = [
    							1       1       0       1       500       1.05     0.95     0;
    							2       1       0       1       500       1.05     0.95     0;
									3       1       0       1       500       1.05     0.95     0;
									4       1       0       1       500       1.05     0.95     0;
									5       1       0       1       500       1.05     0.95     0;
									6       1       0       1       500       1.05     0.95     0;
									7       1       0       1       500       1.05     0.95     0;
									8       1       0       1       500       1.05     0.95     0;
									9       1       0       1       500       1.05     0.95     0;
];

%% converters
%column_names%    busdc_i busac_i type_dc type_ac P_g   Q_g   islcc  Vtar   rtf 	xtf  transformer tm   bf 	filter    rc     xc   reactor   basekVac   Vmmax   Vmmin      Imax    status   LossA  LossB  LossCrec LossCinv  droop      Pdcset    Vdcset  dVdcset Pacmax  Pacmin   Qacmax  Qacmin
mpc.convdc = [
    							1       7   		2       1       -550   0    0 			1     0.01  0.01 0 						1 	0.01 0 				0.01   0.01 0  				500         1.05     0.95     1.1     1        0.0   0.0     0.0       0.0      0.0050     0.0       1.0000   0 		 2000  	-2000  		1000 		-1000;
									2       40   		3       1       1000   0    0 			1     0.01  0.01 0 						1 	0.01 0 				0.01   0.01 0  				500         1.05     0.95     1.1     1        0.0   0.0     0.0       0.0      0.0050     0.0       1.0000   0 		 2000 	-2000  		1000 		-1000;
                  3       3   		3       1       -550   0    0 			1     0.01  0.01 0 						1 	0.01 0 				0.01   0.01 0  				500         1.05     0.95     1.1     1        0.0   0.0     0.0       0.0      0.0050     0.0       1.0000   0 		 2000 	-2000 		1000 		-1000;
									4       23   		3       1       -600   0    0 			1     0.01  0.01 0 						1 	0.01 0 				0.01   0.01 0  				500         1.05     0.95     1.1     1        0.0   0.0     0.0       0.0      0.0050     0.0       1.0000   0 		 2000 	-2000 		1000 		-1000;
									5       48   		3       1       1000   0    0 			1     0.01  0.01 0 						1 	0.01 0 				0.01   0.01 0  				500         1.05     0.95     1.1     1        0.0   0.0     0.0       0.0      0.0050     0.0       1.0000   0 		 2000 	-2000  		1000 		-1000;
									6       54   		3       1       50     0    0 			1     0.01  0.01 0 						1 	0.01 0 				0.01   0.01 0  				500         1.05     0.95     1.1     1        0.0   0.0     0.0       0.0      0.0050     0.0       1.0000   0 		 2000 	-2000 		1000 		-1000;
									7       57   		3       1       -550   0    0 			1     0.01  0.01 0 						1 	0.01 0 				0.01   0.01 0  				500         1.05     0.95     1.1     1        0.0   0.0     0.0       0.0      0.0050     0.0       1.0000   0 		 2000 	-2000 		1000 		-1000;
									8       27   		3       1       1000   0    0 			1     0.01  0.01 0 						1 	0.01 0 				0.01   0.01 0  				500         1.05     0.95     1.1     1        0.0   0.0     0.0       0.0      0.0050     0.0       1.0000   0 		 2000 	-2000  		1000 		-1000;
									9       67   		1       1       -800   0    0 			1     0.01  0.01 0 						1 	0.01 0 				0.01   0.01 0  				500         1.05     0.95     1.1     1        0.0   0.0     0.0       0.0      0.0050     0.0       1.0000   0 		 1000  	-1000   	1000 		-1000;
];

%column_names% Converter_id CostPrev CostCorr
mpc.conv_cost = [
1 1 10;
2 1 10;
3 1 10;
4 1 10;
5 1 10;
6 1 10;
7 1 10;
8 1 10;
9 1 10;
]

%% branches
%column_names%   fbusdc  tbusdc  r        l   c   rateA   rateB   rateC   status
mpc.branchdc = [
    						 1       2       0.0012   0   0   1575    1575    1575     1;
    				 	   3       4       0.0012   0   0   1575    1575    1575     1;
    				 		 4       5       0.0012   0   0   1575    1575    1575     1;
								 6       7       0.0012   0   0   1575    1575    1575     1;
								 1       3       0.0012   0   0   1575    1575    1575     1;
								 2       8       0.0012   0   0   1575    1575    1575     1;
								 8       5       0.0012   0   0   1575    1575    1575     1;
								 4       6       0.0012   0   0   1575    1575    1575     1;
								 2       4       0.0012   0   0   1575    1575    1575     1;
								 5       7       0.0012   0   0   1575    1575    1575     1;
								 3       9       0.0012   0   0   1575    1575    1575     1;
 ];


%% Stochastic data


%column_names% μ dst_id λvmax σ λvmin 
mpc.bus_data = {
	0	0	1.03643000000000	0	1.03643000000000
0	0	1.03643000000000	0	1.03643000000000
0	0	1.03643000000000	0	1.03643000000000
0	0	1.03643000000000	0	1.03643000000000
0	0	1.03643000000000	0	1.03643000000000
191	0	1.03643000000000	0	1.03643000000000
0	0	1.03643000000000	0	1.03643000000000
287	0	1.03643000000000	0	1.03643000000000
186	0	1.03643000000000	0	1.03643000000000
0	0	1.03643000000000	0	1.03643000000000
271	0	1.03643000000000	0	1.03643000000000
171	0	1.03643000000000	0	1.03643000000000
0	0	1.03643000000000	0	1.03643000000000
199	0	1.03643000000000	0	1.03643000000000
113	0	1.03643000000000	0	1.03643000000000
38	0	1.03643000000000	0	1.03643000000000
275	0	1.03643000000000	0	1.03643000000000
0	0	1.03643000000000	0	1.03643000000000
165	0	1.03643000000000	0	1.03643000000000
178	0	1.03643000000000	0	1.03643000000000
0	0	1.03643000000000	0	1.03643000000000
30	0	1.03643000000000	0	1.03643000000000
0	0	1.03643000000000	0	1.03643000000000
32	0	1.03643000000000	0	1.03643000000000
0	0	1.03643000000000	0	1.03643000000000
395	0	1.03643000000000	0	1.03643000000000
0	0	1.03643000000000	0	1.03643000000000
665	0	1.03643000000000	0	1.03643000000000
0	0	1.03643000000000	0	1.03643000000000
266	0	1.03643000000000	0	1.03643000000000
845	0	1.03643000000000	0	1.03643000000000
332	0	1.03643000000000	0	1.03643000000000
0	0	1.03643000000000	0	1.03643000000000
540	0	1.03643000000000	0	1.03643000000000
460	0	1.03643000000000	0	1.03643000000000
0	0	1.03643000000000	0	1.03643000000000
451	0	1.03643000000000	0	1.03643000000000
150	0	1.03643000000000	0	1.03643000000000
629	0	1.03643000000000	0	1.03643000000000
0	0	1.03643000000000	0	1.03643000000000
0	0	1.03643000000000	0	1.03643000000000
859	0	1.03643000000000	0	1.03643000000000
0	0	1.03643000000000	0	1.03643000000000
474	0	1.03643000000000	0	1.03643000000000
668	0	1.03643000000000	0	1.03643000000000
614	0	1.03643000000000	0	1.03643000000000
81	0	1.03643000000000	0	1.03643000000000
0	0	1.03643000000000	0	1.03643000000000
0	0	1.03643000000000	0	1.03643000000000
0	0	1.03643000000000	0	1.03643000000000
430	0	1.03643000000000	0	1.03643000000000
309	0	1.03643000000000	0	1.03643000000000
100	0	1.03643000000000	0	1.03643000000000
0	0	1.03643000000000	0	1.03643000000000
303	0	1.03643000000000	0	1.03643000000000
0	0	1.03643000000000	0	1.03643000000000
0	0	1.03643000000000	0	1.03643000000000
324	0	1.03643000000000	0	1.03643000000000
0	0	1.03643000000000	0	1.03643000000000
115	0	1.03643000000000	0	1.03643000000000
187	0	1.03643000000000	0	1.03643000000000
319	0	1.03643000000000	0	1.03643000000000
0	0	1.03643000000000	0	1.03643000000000
0	0	1.03643000000000	0	1.03643000000000
315	0	1.03643000000000	0	1.03643000000000
0	0	1.03643000000000	0	1.03643000000000
0	0	1.03643000000000	0	1.03643000000000
};


% % mpc.bus_data = zeros(length(mpc.bus(:,1)),5);
% % mpc.bus_data(:,1) = mpc.bus(:,3); %Pd
% % mpc.bus_data(:,3) = 1.03643;
% % mpc.bus_data(:,5) = 1.03643;


%column_names% λqmax λpmax λpmin λqmin 
mpc.gen_data = {
1.03643000000000	1.03643000000000	1.03643000000000	1.03643000000000
1.03643000000000	1.03643000000000	1.03643000000000	1.03643000000000
1.03643000000000	1.03643000000000	1.03643000000000	1.03643000000000
1.03643000000000	1.03643000000000	1.03643000000000	1.03643000000000
1.03643000000000	1.03643000000000	1.03643000000000	1.03643000000000
1.03643000000000	1.03643000000000	1.03643000000000	1.03643000000000
1.03643000000000	1.03643000000000	1.03643000000000	1.03643000000000
1.03643000000000	1.03643000000000	1.03643000000000	1.03643000000000
1.03643000000000	1.03643000000000	1.03643000000000	1.03643000000000
1.03643000000000	1.03643000000000	1.03643000000000	1.03643000000000
1.03643000000000	1.03643000000000	1.03643000000000	1.03643000000000
1.03643000000000	1.03643000000000	1.03643000000000	1.03643000000000
1.03643000000000	1.03643000000000	1.03643000000000	1.03643000000000
1.03643000000000	1.03643000000000	1.03643000000000	1.03643000000000
1.03643000000000	1.03643000000000	1.03643000000000	1.03643000000000
1.03643000000000	1.03643000000000	1.03643000000000	1.03643000000000
1.03643000000000	1.03643000000000	1.03643000000000	1.03643000000000
1.03643000000000	1.03643000000000	1.03643000000000	1.03643000000000
1.03643000000000	1.03643000000000	1.03643000000000	1.03643000000000
1.03643000000000	1.03643000000000	1.03643000000000	1.03643000000000
};



% % mpc.gen_data = 1.03643 .* ones(length(mpc.gen(:,1)),4);



%column_names% λcmax c_rating_a 
mpc.branch_data = {
1.03643000000000	100
1.03643000000000	100
1.03643000000000	100
1.03643000000000	100
1.03643000000000	100
1.03643000000000	100
1.03643000000000	100
1.03643000000000	100
1.03643000000000	100
1.03643000000000	100
1.03643000000000	100
1.03643000000000	100
1.03643000000000	100
1.03643000000000	100
1.03643000000000	100
1.03643000000000	100
1.03643000000000	100
1.03643000000000	100
1.03643000000000	100
1.03643000000000	100
1.03643000000000	100
1.03643000000000	100
1.03643000000000	100
1.03643000000000	100
1.03643000000000	100
1.03643000000000	100
1.03643000000000	100
1.03643000000000	100
1.03643000000000	100
1.03643000000000	100
1.03643000000000	100
1.03643000000000	100
1.03643000000000	100
1.03643000000000	100
1.03643000000000	100
1.03643000000000	100
1.03643000000000	100
1.03643000000000	100
1.03643000000000	100
1.03643000000000	100
1.03643000000000	100
1.03643000000000	100
1.03643000000000	100
1.03643000000000	100
1.03643000000000	100
1.03643000000000	100
1.03643000000000	100
1.03643000000000	100
1.03643000000000	100
1.03643000000000	100
1.03643000000000	100
1.03643000000000	100
1.03643000000000	100
1.03643000000000	100
1.03643000000000	100
1.03643000000000	100
1.03643000000000	100
1.03643000000000	100
1.03643000000000	100
1.03643000000000	100
1.03643000000000	100
1.03643000000000	100
1.03643000000000	100
1.03643000000000	100
1.03643000000000	100
1.03643000000000	100
1.03643000000000	100
1.03643000000000	100
1.03643000000000	100
1.03643000000000	100
1.03643000000000	100
1.03643000000000	100
1.03643000000000	100
1.03643000000000	100
1.03643000000000	100
1.03643000000000	100
1.03643000000000	100
1.03643000000000	100
1.03643000000000	100
1.03643000000000	100
1.03643000000000	100
1.03643000000000	100
1.03643000000000	100
1.03643000000000	100
1.03643000000000	100
1.03643000000000	100
1.03643000000000	100
1.03643000000000	100
1.03643000000000	100
1.03643000000000	100
1.03643000000000	100
1.03643000000000	100
1.03643000000000	100
1.03643000000000	100
1.03643000000000	100
1.03643000000000	100
1.03643000000000	100
1.03643000000000	100
1.03643000000000	100
1.03643000000000	100
1.03643000000000	100
1.03643000000000	100
};

% % mpc.branch_data = zeros(length(mpc.branch(:,1)),2);
% % mpc.branch_data(:,1) = 1.03643; 
% % mpc.branch_data(:,2) = 100;



%column_names% λvmax μ λvmin σ dst_id 
mpc.convdc_sdata = {
	1.03643000000000	0	1.03643000000000	0	0
1.03643000000000	0	1.03643000000000	0	0
1.03643000000000	0	1.03643000000000	0	0
1.03643000000000	0	1.03643000000000	0	0
1.03643000000000	0	1.03643000000000	0	0
1.03643000000000	0	1.03643000000000	0	0
1.03643000000000	0	1.03643000000000	0	0
1.03643000000000	0	1.03643000000000	0	0
1.03643000000000	0	1.03643000000000	0	0
};


% % mpc.convdc_sdata = zeros(length(mpc.convdc(:,1)), 5);
% % mpc.convdc_sdata(:,1) = 1.03643;
% % mpc.convdc_sdata(:,3) = 1.03643;

%column_names% pa dst pb 
mpc.sdata = {
	2.0	'Beta'	    2.0
	0.0	'Normal'	0.0
};



%column_names% λvmax μ λvmin σ dst_id 
mpc.busdc_sdata = {
	1.03643000000000	0	1.03643000000000	0	0
1.03643000000000	0	1.03643000000000	0	0
1.03643000000000	0	1.03643000000000	0	0
1.03643000000000	0	1.03643000000000	0	0
1.03643000000000	0	1.03643000000000	0	0
1.03643000000000	0	1.03643000000000	0	0
1.03643000000000	0	1.03643000000000	0	0
1.03643000000000	0	1.03643000000000	0	0
1.03643000000000	0	1.03643000000000	0	0
};

% % mpc.busdc_sdata = zeros(length(mpc.busdc(:,1)),5);
% % mpc.busdc_sdata(:,1) = 1.03643;
% % mpc.busdc_sdata(:,3) = 1.03643;


%column_names% λcmax 
mpc.branchdc_sdata = {
	1.03643000000000
1.03643000000000
1.03643000000000
1.03643000000000
1.03643000000000
1.03643000000000
1.03643000000000
1.03643000000000
1.03643000000000
1.03643000000000
1.03643000000000
};

% % mpc.branchdc_sdata = 1.03643 .* ones(length(mpc.branchdc(:,1)),1); 










